@<TRIPOS>MOLECULE
PXY
 18 18 0 0 0
SMALL
GASTEIGER

@<TRIPOS>ATOM
      1 C          26.6450    6.1410    4.6680 C.ar    1  LIG1       -0.0504
      2 C          26.7810    5.6710    3.4440 C.ar    1  LIG1       -0.0586
      3 C          27.2700    6.4720    2.4350 C.ar    1  LIG1       -0.0586
      4 C          27.5830    7.7750    2.6860 C.ar    1  LIG1       -0.0504
      5 C          27.4420    8.2660    3.9390 C.ar    1  LIG1       -0.0586
      6 C          26.9790    7.4340    4.9470 C.ar    1  LIG1       -0.0586
      7 C          26.1370    5.2260    5.7700 C.3     1  LIG1       -0.0397
      8 C          28.1020    8.6640    1.5520 C.3     1  LIG1       -0.0397
      9 H          26.4890    4.6220    3.2660 H       1  LIG1        0.0620
     10 H          27.4110    6.0670    1.4180 H       1  LIG1        0.0620
     11 H          27.6980    9.3200    4.1340 H       1  LIG1        0.0620
     12 H          26.8750    7.8040    5.9800 H       1  LIG1        0.0620
     13 H          26.0220    5.6230    6.8050 H       1  LIG1        0.0278
     14 H          25.1640    4.7870    5.4470 H       1  LIG1        0.0278
     15 H          26.7850    4.3200    5.8070 H       1  LIG1        0.0278
     16 H          28.3580    9.7290    1.7570 H       1  LIG1        0.0278
     17 H          28.9880    8.1690    1.0910 H       1  LIG1        0.0278
     18 H          27.3690    8.6310    0.7120 H       1  LIG1        0.0278
@<TRIPOS>BOND
     1     1     2   ar
     2     1     6   ar
     3     1     7    1
     4     2     3   ar
     5     2     9    1
     6     3     4   ar
     7     3    10    1
     8     4     5   ar
     9     4     8    1
    10     5     6   ar
    11     5    11    1
    12     6    12    1
    13     7    13    1
    14     7    14    1
    15     7    15    1
    16     8    16    1
    17     8    17    1
    18     8    18    1
